<?xml version='1.0' encoding='UTF-8' standalone='yes' ?><hierarchy rotation="0"><node index="0" text="" resource-id="" class="android.widget.FrameLayout" package="com.collectiq.ai.local" content-desc="" checkable="false" checked="false" clickable="false" enabled="true" focusable="false" focused="false" scrollable="false" long-clickable="false" password="false" selected="false" bounds="[0,0][1080,2173]"><node index="0" text="" resource-id="" class="android.widget.LinearLayout" package="com.collectiq.ai.local" content-desc="" checkable="false" checked="false" clickable="false" enabled="true" focusable="false" focused="false" scrollable="false" long-clickable="false" password="false" selected="false" bounds="[0,0][1080,2173]"><node index="0" text="" resource-id="android:id/content" class="android.widget.FrameLayout" package="com.collectiq.ai.local" content-desc="" checkable="false" checked="false" clickable="false" enabled="true" focusable="false" focused="false" scrollable="false" long-clickable="false" password="false" selected="false" bounds="[0,0][1080,2173]"><node index="0" text="" resource-id="" class="android.widget.FrameLayout" package="com.collectiq.ai.local" content-desc="" checkable="false" checked="false" clickable="false" enabled="true" focusable="true" focused="false" scrollable="false" long-clickable="false" password="false" selected="false" bounds="[0,0][1080,2173]"><node index="0" text="" resource-id="" class="android.view.View" package="com.collectiq.ai.local" content-desc="" checkable="false" checked="false" clickable="false" enabled="true" focusable="false" focused="false" scrollable="false" long-clickable="false" password="false" selected="false" bounds="[0,0][1080,2173]"><node index="0" text="" resource-id="" class="android.view.View" package="com.collectiq.ai.local" content-desc="" checkable="false" checked="false" clickable="false" enabled="true" focusable="false" focused="false" scrollable="false" long-clickable="false" password="false" selected="false" bounds="[0,0][1080,2173]"><node index="0" text="" resource-id="" class="android.view.View" package="com.collectiq.ai.local" content-desc="" checkable="false" checked="false" clickable="false" enabled="true" focusable="false" focused="false" scrollable="false" long-clickable="false" password="false" selected="false" bounds="[0,0][1080,2173]"><node index="0" text="" resource-id="" class="android.view.View" package="com.collectiq.ai.local" content-desc="" checkable="false" checked="false" clickable="false" enabled="true" focusable="false" focused="false" scrollable="false" long-clickable="false" password="false" selected="false" bounds="[0,0][1080,2173]"><node index="0" text="" resource-id="" class="android.view.View" package="com.collectiq.ai.local" content-desc="" checkable="false" checked="false" clickable="false" enabled="true" focusable="false" focused="false" scrollable="false" long-clickable="false" password="false" selected="false" bounds="[0,0][1080,2173]"><node index="0" text="" resource-id="" class="android.widget.ScrollView" package="com.collectiq.ai.local" content-desc="" checkable="false" checked="false" clickable="false" enabled="true" focusable="true" focused="false" scrollable="true" long-clickable="false" password="false" selected="false" bounds="[0,0][1080,2173]"><node NAF="true" index="0" text="" resource-id="" class="android.view.View" package="com.collectiq.ai.local" content-desc="" checkable="false" checked="false" clickable="true" enabled="true" focusable="true" focused="false" scrollable="false" long-clickable="false" password="false" selected="false" bounds="[68,171][186,289]" /><node index="1" text="" resource-id="" class="android.view.View" package="com.collectiq.ai.local" content-desc="About PackLox" checkable="false" checked="false" clickable="false" enabled="true" focusable="true" focused="false" scrollable="false" long-clickable="false" password="false" selected="false" bounds="[231,215][691,285]" /><node index="2" text="" resource-id="" class="android.view.View" package="com.collectiq.ai.local" content-desc="Smart Collections. Beautifully Organized." checkable="false" checked="false" clickable="false" enabled="true" focusable="true" focused="false" scrollable="false" long-clickable="false" password="false" selected="false" bounds="[231,308][1013,372]" /><node index="3" text="" resource-id="" class="android.view.View" package="com.collectiq.ai.local" content-desc="PackLox" checkable="false" checked="false" clickable="false" enabled="true" focusable="true" focused="false" scrollable="false" long-clickable="false" password="false" selected="false" bounds="[410,976][670,1052]" /><node index="4" text="" resource-id="" class="android.view.View" package="com.collectiq.ai.local" content-desc="Version 1.0.0 (1)" checkable="false" checked="false" clickable="false" enabled="true" focusable="true" focused="false" scrollable="false" long-clickable="false" password="false" selected="false" bounds="[393,1069][687,1125]" /><node index="5" text="" resource-id="" class="android.view.View" package="com.collectiq.ai.local" content-desc="App Information" checkable="false" checked="false" clickable="false" enabled="true" focusable="true" focused="false" scrollable="false" long-clickable="false" password="false" selected="false" bounds="[127,1356][621,1432]" /><node index="6" text="" resource-id="" class="android.view.View" package="com.collectiq.ai.local" content-desc="Version" checkable="false" checked="false" clickable="false" enabled="true" focusable="true" focused="false" scrollable="false" long-clickable="false" password="false" selected="false" bounds="[338,1531][473,1579]" /><node index="7" text="" resource-id="" class="android.view.View" package="com.collectiq.ai.local" content-desc="1.0.0" checkable="false" checked="false" clickable="false" enabled="true" focusable="true" focused="false" scrollable="false" long-clickable="false" password="false" selected="false" bounds="[338,1590][415,1635]" /><node index="8" text="" resource-id="" class="android.view.View" package="com.collectiq.ai.local" content-desc="Build Number" checkable="false" checked="false" clickable="false" enabled="true" focusable="true" focused="false" scrollable="false" long-clickable="false" password="false" selected="false" bounds="[338,1790][579,1838]" /><node index="9" text="" resource-id="" class="android.view.View" package="com.collectiq.ai.local" content-desc="1" checkable="false" checked="false" clickable="false" enabled="true" focusable="true" focused="false" scrollable="false" long-clickable="false" password="false" selected="false" bounds="[338,1849][357,1894]" /><node index="10" text="" resource-id="" class="android.view.View" package="com.collectiq.ai.local" content-desc="Privacy" checkable="false" checked="false" clickable="false" enabled="true" focusable="true" focused="false" scrollable="false" long-clickable="false" password="false" selected="false" bounds="[338,2036][469,2084]" /><node index="11" text="" resource-id="" class="android.view.View" package="com.collectiq.ai.local" content-desc="Your collection starts locally on this device" checkable="false" checked="false" clickable="false" enabled="true" focusable="true" focused="false" scrollable="false" long-clickable="false" password="false" selected="false" bounds="[338,2095][911,2173]" /></node></node></node></node></node></node></node></node></node><node index="1" text="" resource-id="android:id/navigationBarBackground" class="android.view.View" package="com.collectiq.ai.local" content-desc="" checkable="false" checked="false" clickable="false" enabled="true" focusable="false" focused="false" scrollable="false" long-clickable="false" password="false" selected="false" bounds="[0,0][0,0]" /></node></hierarchy>